src/tests/data/grids/DGS/three_winding.dgs
********************************************************************************
*
* DIgSILENT (R) DGS Export V1.8.4
* Copyright (C) DIgSILENT GmbH 2026. All rights reserved.
*
* DIgSILENT (C) PowerFactory V24.0.10.0
*
* Date:     04/08/2026 15:30
* Project:  three_winding_transformer (Study Case: Study Case)
*
********************************************************************************


$$General;FID(a:40);Descr(a:40);Val(a:255)
********************************************************************************
*  General Information
*
*  FID: Unique identifier for DGS file
*  Descr: Setting
*  Val: Value
********************************************************************************
  1;Version;7.0


$$ElmLod;FID(a:40);OP(a:1);loc_name(a:80);fold_id(p);typ_id(p);mode_inp(a:6);slini(r);plini(r);qlini(r);coslini(r);pf_recap(i);scale0(r);i_scale(i);outserv(i);classif(a:40)
********************************************************************************
*  General Load
*
*  FID: Unique identifier for DGS file
*  OP: Operation (C=create, U=update, D=delete, M=merge, I=ignore)
*  loc_name: Name
*  fold_id: In Folder
*  typ_id: Type in TypLod,TypLodind,TypLodwecc
*  mode_inp: Input Mode
*  slini: Operating Point: Apparent Power in MVA
*  plini: Operating Point: Active Power in MW
*  qlini: Operating Point: Reactive Power in Mvar
*  coslini: Operating Point: Power Factor
*  pf_recap: Operating Point: Power Factor:ind.:cap.
*  scale0: Operating Point: Scaling Factor
*  i_scale: Operating Point: Adjusted by Load Scaling
*  outserv: Out of Service
*  classif: Load Classification:Agricultural:Domestic:Commercial:Industrial
********************************************************************************
  2;C;LV Load;4;;DEF;0,509901;0,5;0,1;0,980580;0;1;0;0;
  3;C;MV Load;4;;DEF;5,09902;5;1;0,980580;0;1;0;0;


$$ElmNet;FID(a:40);OP(a:1);loc_name(a:80);fold_id(p);frnom(r);pDiagram(p)
********************************************************************************
*  Grid
*
*  FID: Unique identifier for DGS file
*  OP: Operation (C=create, U=update, D=delete, M=merge, I=ignore)
*  loc_name: Name
*  fold_id: In Folder
*  frnom: Nominal Frequency in Hz
*  pDiagram: Diagram in IntGrfnet
********************************************************************************
  4;C;Grid;;50;24


$$ElmTerm;FID(a:40);OP(a:1);loc_name(a:80);fold_id(p);typ_id(p);systype(i);iUsage(i);uknom(r);unknom(r);iminus(i);outserv(i);GPSlat(r);GPSlon(r);vtarget(r)
********************************************************************************
*  Terminal
*
*  FID: Unique identifier for DGS file
*  OP: Operation (C=create, U=update, D=delete, M=merge, I=ignore)
*  loc_name: Name
*  fold_id: In Folder
*  typ_id: Type in TypBar
*  systype: System Type:AC:DC:AC/BI
*  iUsage: Usage:Busbar:Junction Node:Internal Node
*  uknom: Nominal Voltage: Line-Line in kV
*  unknom: Nominal Voltage: Line-Ground in kV
*  iminus: Nominal Voltage: DC-Polarity:positive (+):negative (-):neutral
*  outserv: Out of Service
*  GPSlat: Geographical Position: Latitude / Northing in deg
*  GPSlon: Geographical Position: Longitude / Easting in deg
*  vtarget: Voltage Control: Target Voltage in p.u.
********************************************************************************
  5;C;HV Bus;4;;0;0;110;63,50853;0;0;0;0;1
  6;C;LV Bus;4;;0;0;0,4;0,230940;0;0;0;0;1
  7;C;MV Bus;4;;0;0;33;19,05256;0;0;0;0;1


$$ElmTr3;FID(a:40);OP(a:1);loc_name(a:80);fold_id(p);nt3nm(i);typ_id(p);outserv(i);n3tap_h(i);n3tap_m(i);n3tap_l(i);i_auto_hl(i);ictrlside(i);ntrcn(i);t3ldc(i);usetp(r);usp_low(r);usp_up(r)
********************************************************************************
*  3-Winding Transformer
*
*  FID: Unique identifier for DGS file
*  OP: Operation (C=create, U=update, D=delete, M=merge, I=ignore)
*  loc_name: Name
*  fold_id: In Folder
*  nt3nm: Number of: parallel Transformers
*  typ_id: Type in TypTr3
*  outserv: Out of Service
*  n3tap_h: Tap HV-Side: Act. Position
*  n3tap_m: Tap MV-Side: Act. Position
*  n3tap_l: Tap LV-Side: Act. Position
*  i_auto_hl: Auto Transformer:none:HV-LV:HV-MV:MV-LV
*  ictrlside: Controller for tap at:HV-Side:MV-Side:LV-Side
*  ntrcn: Automatic Tap Changing
*  t3ldc: Controlled Node is at:HV:MV:LV:EXT
*  usetp: Voltage Setpoint in p.u.
*  usp_low: Lower Voltage Bound in p.u.
*  usp_up: Upper Voltage Bound in p.u.
********************************************************************************
  8;C;3-Winding Transformer;4;1;37;0;0;0;0;0;0;0;0;1;0,99;1,01


$$ElmXnet;FID(a:40);OP(a:1);loc_name(a:80);fold_id(p);snss(r);rntxn(r);z2tz1(r);snssmin(r);rntxnmin(r);z2tz1min(r);chr_name(a:40);bustp(a:2);pgini(r);qgini(r);phiini(r);usetp(r);outserv(i);Kpf(r);K(r)
********************************************************************************
*  External Grid
*
*  FID: Unique identifier for DGS file
*  OP: Operation (C=create, U=update, D=delete, M=merge, I=ignore)
*  loc_name: Name
*  fold_id: In Folder
*  snss: Max. Values: Short-Circuit Power Sk''max in MVA
*  rntxn: Max. Values: R/X Ratio (max.)
*  z2tz1: Max. Values Impedance Ratio: Z2/Z1 max.
*  snssmin: Min. Values: Short-Circuit Power Sk''min in MVA
*  rntxnmin: Min. Values: R/X Ratio (min.)
*  z2tz1min: Min. Values Impedance Ratio: Z2/Z1 min.
*  chr_name: Characteristic Name
*  bustp: Bus Type:PQ:PV:SL
*  pgini: Operation Point: Active Power in MW
*  qgini: Operation Point: Reactive Power in Mvar
*  phiini: Operation Point: Angle in deg
*  usetp: Operation Point: Voltage Setpoint in p.u.
*  outserv: Out of Service
*  Kpf: Operation Point: Primary Frequency Bias in MW/Hz
*  K: Operation Point: Secondary Frequency Bias in MW/Hz
********************************************************************************
  9;C;External Grid;4;10000;0,1;1;8000;0,1;1;;SL;0;0;0;1;0;0;0


$$IntFolder;FID(a:40);OP(a:1);loc_name(a:80);fold_id(p)
********************************************************************************
*  Folder
*
*  FID: Unique identifier for DGS file
*  OP: Operation (C=create, U=update, D=delete, M=merge, I=ignore)
*  loc_name: Name
*  fold_id: In Folder
********************************************************************************
  10;C;Layers;24
  38;C;Settings;24


$$IntGrf;FID(a:40);OP(a:1);loc_name(a:80);fold_id(p);iCol(i);iVis(i);iLevel(i);rCenterX(r);rCenterY(r);sSymNam(a:80);pDataObj(p);iRot(i);rSizeX(r);rSizeY(r)
********************************************************************************
*  Graphical Net Object
*
*  FID: Unique identifier for DGS file
*  OP: Operation (C=create, U=update, D=delete, M=merge, I=ignore)
*  loc_name: Name
*  fold_id: In Folder
*  iCol: Colour
*  iVis: Visible
*  iLevel: Layer
*  rCenterX: X-Position
*  rCenterY: Y-Position
*  sSymNam: Symbol Name
*  pDataObj: Net Data Object
*  iRot: Rotation
*  rSizeX: X-Size
*  rSizeY: Y-Size
********************************************************************************
  11;C;Graphical Net Object1;24;-16777216;1;1;166,25;153,125;TermStrip;5;0;1;1
  12;C;Graphical Net Object2;24;-16777216;1;1;118,125;65,625;TermStrip;7;0;1;1
  13;C;Graphical Net Object3;24;-16777216;1;1;214,375;65,625;TermStrip;6;0;1;1
  14;C;Graphical Net Object4;24;-16777216;1;1;166,25;109,375;d_tr3;8;0;1;1
  15;C;Graphical Net Object5;24;-16777216;1;1;214,375;48,125;d_load;2;0;1;1
  16;C;Graphical Net Object6;24;-16777216;1;1;118,125;48,125;d_load;3;0;1;1
  39;C;Graphical Net Object7(1);24;-16777216;1;1;166,25;170,625;d_net;9;180;1;1
  17;C;Graphical Net Object7;24;-16777216;1;1;166,25;170,625;d_vac;;180;1;1


$$IntGrfcon;FID(a:40);OP(a:1);loc_name(a:80);fold_id(p);rX:SIZEROW(i);rX:0(r);rX:1(r);rX:2(r);rY:SIZEROW(i);rY:0(r);rY:1(r);rY:2(r);iDatConNr(i)
********************************************************************************
*  Graphical Connection
*
*  FID: Unique identifier for DGS file
*  OP: Operation (C=create, U=update, D=delete, M=merge, I=ignore)
*  loc_name: Name
*  fold_id: In Folder
*  rX:SIZEROW: Number of rows for attribute 'rX'
*  rX: X in mm
*  rY:SIZEROW: Number of rows for attribute 'rY'
*  rY: Y in mm
*  iDatConNr: Internal Connection Number
********************************************************************************
  18;C;GCO_1;14;2;166,25;166,25;;2;113,75;153,125;;0
  19;C;GCO_2;14;3;161,875;118,125;118,125;3;105;105;65,625;1
  20;C;GCO_3;14;3;170,625;214,375;214,375;3;105;105;65,625;2
  21;C;GCO_1;15;2;214,375;214,375;;2;52,5;65,625;;0
  22;C;GCO_1;16;2;118,125;118,125;;2;52,5;65,625;;0
  40;C;GCO_1;39;2;166,25;166,25;;2;166,25;153,125;;0
  23;C;GCO_1;17;2;166,25;166,25;;2;166,25;153,125;;0


$$IntGrfnet;FID(a:40);OP(a:1);loc_name(a:80);fold_id(p);snap_on(i);ortho_on(i);pDataFolder(p)
********************************************************************************
*  Graphic
*
*  FID: Unique identifier for DGS file
*  OP: Operation (C=create, U=update, D=delete, M=merge, I=ignore)
*  loc_name: Name
*  fold_id: In Folder
*  snap_on: Drawing aids: Snap elements to grid
*  ortho_on: Drawing aids: Line routing
*  pDataFolder: Target folder for network elements in ElmNet,BlkDef,IntFolder,ElmSubstat,ElmTrfstat,ElmSite,ElmBranch,ElmSubmodel,ElmFolder,IntTemplate
********************************************************************************
  24;C;Grid;;1;1;4


$$StaCubic;FID(a:40);OP(a:1);loc_name(a:80);fold_id(p);obj_bus(i);obj_id(p);it2p1(i);it2p2(i);it2p3(i)
********************************************************************************
*  Cubicle
*
*  FID: Unique identifier for DGS file
*  OP: Operation (C=create, U=update, D=delete, M=merge, I=ignore)
*  loc_name: Name
*  fold_id: In Folder
*  obj_bus: Bus Index
*  obj_id: Connected with in Elm*,RelFuse,StaSua*
*  it2p1: Phase 1
*  it2p2: Phase 2
*  it2p3: Phase 3
********************************************************************************
  25;C;Cub_1;5;0;8;0;1;2
  26;C;Cub_2;5;0;9;0;1;2
  27;C;Cub_1;6;2;8;0;1;2
  28;C;Cub_2;6;0;2;0;1;2
  29;C;Cub_1;7;1;8;0;1;2
  30;C;Cub_2;7;0;3;0;1;2


$$StaSwitch;FID(a:40);OP(a:1);loc_name(a:80);fold_id(p);on_off(i);typ_id(p);aUsage(a)
********************************************************************************
*  Switch
*
*  FID: Unique identifier for DGS file
*  OP: Operation (C=create, U=update, D=delete, M=merge, I=ignore)
*  loc_name: Name
*  fold_id: in Cubicle
*  on_off: Closed
*  typ_id: Type in TypSwitch
*  aUsage: Switch Type
********************************************************************************
  31;C;Switch;25;1;;cbk
  32;C;Switch;26;1;;cbk
  33;C;Switch;27;1;;cbk
  34;C;Switch;28;1;;cbk
  35;C;Switch;29;1;;cbk
  36;C;Switch;30;1;;cbk


$$TypTr3;FID(a:40);OP(a:1);loc_name(a:80);fold_id(p);strn3_h(r);strn3_m(r);strn3_l(r);utrn3_h(r);utrn3_m(r);utrn3_l(r);uktr3_h(r);uktr3_m(r);uktr3_l(r);pcut3_h(r);pcut3_m(r);pcut3_l(r);uk0hm(r);uk0ml(r);uk0hl(r);ur0hm(r);ur0ml(r);ur0hl(r);tr3cn_h(a:4);tr3cn_m(a:4);tr3cn_l(a:4);nt3ag_h(r);nt3ag_m(r);nt3ag_l(r);curm3(r);pfe(r);du3tp_h(r);ph3tr_h(r);n3tp0_h(i);n3tmn_h(i);n3tmx_h(i);du3tp_m(r);ph3tr_m(r);n3tp0_m(i);n3tmn_m(i);n3tmx_m(i);du3tp_l(r);ph3tr_l(r);n3tp0_l(i);n3tmn_l(i);n3tmx_l(i);itapos(i);i3loc(i)
********************************************************************************
*  3-Winding Transformer Type
*
*  FID: Unique identifier for DGS file
*  OP: Operation (C=create, U=update, D=delete, M=merge, I=ignore)
*  loc_name: Name
*  fold_id: In Folder
*  strn3_h: Rated Power: HV-Side in MVA
*  strn3_m: Rated Power: MV-Side in MVA
*  strn3_l: Rated Power: LV-Side in MVA
*  utrn3_h: Rated Voltage: HV-Side in kV
*  utrn3_m: Rated Voltage: MV-Side in kV
*  utrn3_l: Rated Voltage: LV-Side in kV
*  uktr3_h: Positive Sequence Impedance Short-Circuit Voltage uk: HV-MV in %
*  uktr3_m: Positive Sequence Impedance Short-Circuit Voltage uk: MV-LV in %
*  uktr3_l: Positive Sequence Impedance Short-Circuit Voltage uk: LV-HV in %
*  pcut3_h: Positive Sequence Impedance Copper Losses: HV-MV in kW
*  pcut3_m: Positive Sequence Impedance Copper Losses: MV-LV in kW
*  pcut3_l: Positive Sequence Impedance Copper Losses: LV-HV in kW
*  uk0hm: Zero Sequence Impedance Short-Circuit Voltage uk0: HV-MV in %
*  uk0ml: Zero Sequence Impedance Short-Circuit Voltage uk0: MV-LV in %
*  uk0hl: Zero Sequence Impedance Short-Circuit Voltage uk0: LV-HV in %
*  ur0hm: Zero Sequence Impedance SHC-Voltage, Real Part: HV-MV in %
*  ur0ml: Zero Sequence Impedance SHC-Voltage, Real Part: MV-LV in %
*  ur0hl: Zero Sequence Impedance SHC-Voltage, Real Part: LV-HV in %
*  tr3cn_h: Vector Group: HV-Side:Y :YN:Z :ZN:D
*  tr3cn_m: Vector Group: MV-Side:Y :YN:Z :ZN:D
*  tr3cn_l: Vector Group: LV-Side:Y :YN:Z :ZN:D
*  nt3ag_h: Vector Group: Phase Shift in *30deg
*  nt3ag_m: Vector Group: Phase Shift in *30deg
*  nt3ag_l: Vector Group: Phase Shift in *30deg
*  curm3: Magnetising Impedance: No Load Current in %
*  pfe: Magnetising Impedance: No Load Losses in kW
*  du3tp_h: Tap HV-Side: Add. Voltage per Tap in %
*  ph3tr_h: Tap HV-Side: Phase of du in deg
*  n3tp0_h: Tap HV-Side: Neutral Position
*  n3tmn_h: Tap HV-Side: Min. Position
*  n3tmx_h: Tap HV-Side: Max. Position
*  du3tp_m: Tap MV-Side: Add. Voltage per Tap in %
*  ph3tr_m: Tap MV-Side: Phase of du in deg
*  n3tp0_m: Tap MV-Side: Neutral Position
*  n3tmn_m: Tap MV-Side: Min. Position
*  n3tmx_m: Tap MV-Side: Max. Position
*  du3tp_l: Tap LV-Side: Add. Voltage per Tap in %
*  ph3tr_l: Tap LV-Side: Phase of du in deg
*  n3tp0_l: Tap LV-Side: Neutral Position
*  n3tmn_l: Tap LV-Side: Min. Position
*  n3tmx_l: Tap LV-Side: Max. Position
*  itapos: Tap Modelled at:Star Point:Terminals
*  i3loc: Magnetising Impedance: Position:Star Point:HV-Side:MV-Side:LV-Side
********************************************************************************
  37;C;3-Winding Transformer Type;;5;5;5;125;30;0,4;2;2;2;0;0;0;2;2;2;0;0;0;YN;YN;YN;0;0;0;0;0;0;0;0;0;0;0;0;0;0;0;0;0;0;0;0;0;0
